Data/networks/opendssNetworks/network_1/Feeder_3/Loads - Copy.txt
New Load.LOAD1 Phases=1 Bus1=84.3 kV=0.23 kW=1 PF=0.95
New Load.LOAD2 Phases=1 Bus1=109.2 kV=0.23 kW=1 PF=0.95
New Load.LOAD3 Phases=1 Bus1=117.2 kV=0.23 kW=1 PF=0.95
New Load.LOAD4 Phases=1 Bus1=118.2 kV=0.23 kW=1 PF=0.95
New Load.LOAD5 Phases=1 Bus1=119.1 kV=0.23 kW=1 PF=0.95
New Load.LOAD6 Phases=1 Bus1=132.3 kV=0.23 kW=1 PF=0.95
New Load.LOAD7 Phases=1 Bus1=149.2 kV=0.23 kW=1 PF=0.95
New Load.LOAD8 Phases=1 Bus1=151.3 kV=0.23 kW=1 PF=0.95
New Load.LOAD9 Phases=1 Bus1=163.1 kV=0.23 kW=1 PF=0.95
New Load.LOAD10 Phases=1 Bus1=188.2 kV=0.23 kW=1 PF=0.95
New Load.LOAD11 Phases=1 Bus1=190.1 kV=0.23 kW=1 PF=0.95
New Load.LOAD12 Phases=1 Bus1=204.1 kV=0.23 kW=1 PF=0.95
New Load.LOAD13 Phases=1 Bus1=209.1 kV=0.23 kW=1 PF=0.95
New Load.LOAD14 Phases=1 Bus1=210.1 kV=0.23 kW=1 PF=0.95
New Load.LOAD15 Phases=1 Bus1=237.2 kV=0.23 kW=1 PF=0.95
New Load.LOAD16 Phases=1 Bus1=238.2 kV=0.23 kW=1 PF=0.95
New Load.LOAD17 Phases=1 Bus1=249.3 kV=0.23 kW=1 PF=0.95
New Load.LOAD18 Phases=1 Bus1=250.3 kV=0.23 kW=1 PF=0.95
New Load.LOAD19 Phases=1 Bus1=255.2 kV=0.23 kW=1 PF=0.95
New Load.LOAD20 Phases=1 Bus1=261.3 kV=0.23 kW=1 PF=0.95
New Load.LOAD21 Phases=1 Bus1=288.2 kV=0.23 kW=1 PF=0.95
New Load.LOAD22 Phases=1 Bus1=299.1 kV=0.23 kW=1 PF=0.95
New Load.LOAD23 Phases=1 Bus1=307.1 kV=0.23 kW=1 PF=0.95
New Load.LOAD24 Phases=1 Bus1=342.3 kV=0.23 kW=1 PF=0.95
New Load.LOAD25 Phases=1 Bus1=359.1 kV=0.23 kW=1 PF=0.95
New Load.LOAD26 Phases=1 Bus1=379.3 kV=0.23 kW=1 PF=0.95
New Load.LOAD27 Phases=1 Bus1=380.3 kV=0.23 kW=1 PF=0.95
New Load.LOAD28 Phases=1 Bus1=391.1 kV=0.23 kW=1 PF=0.95
New Load.LOAD29 Phases=1 Bus1=392.1 kV=0.23 kW=1 PF=0.95
New Load.LOAD30 Phases=1 Bus1=412.2 kV=0.23 kW=1 PF=0.95
New Load.LOAD31 Phases=1 Bus1=442.2 kV=0.23 kW=1 PF=0.95
New Load.LOAD32 Phases=1 Bus1=459.3 kV=0.23 kW=1 PF=0.95
New Load.LOAD33 Phases=1 Bus1=475.3 kV=0.23 kW=1 PF=0.95
New Load.LOAD34 Phases=1 Bus1=478.2 kV=0.23 kW=1 PF=0.95
New Load.LOAD35 Phases=1 Bus1=480.3 kV=0.23 kW=1 PF=0.95
New Load.LOAD36 Phases=1 Bus1=481.3 kV=0.23 kW=1 PF=0.95
New Load.LOAD37 Phases=1 Bus1=493.1 kV=0.23 kW=1 PF=0.95
New Load.LOAD38 Phases=1 Bus1=503.1 kV=0.23 kW=1 PF=0.95
New Load.LOAD39 Phases=1 Bus1=504.1 kV=0.23 kW=1 PF=0.95
